*KEYWORD
*TITLE                                                                          
ICEM CFD LS-DYNA3D                                                              
$
$$$$$$$$$$$$$$$$$$$$$$$$$$$$$$$$$$$$$$$$$$$$$$$$$$$$
$		Writing Control Cards		
$$$$$$$$$$$$$$$$$$$$$$$$$$$$$$$$$$$$$$$$$$$$$$$$$$$$
$
$
$$$$$$$$$$$$$$$$$$$$$$$$$$$$$$$$$$$$$$$$$$$$$$$$$$$$
$		Writing Databases		
$$$$$$$$$$$$$$$$$$$$$$$$$$$$$$$$$$$$$$$$$$$$$$$$$$$$
$
$
$$$$$$$$$$$$$$$$$$$$$$$$$$$$$$$$$$$$$$$$$$$$$$$$$$$$
$		Writing *DEFINE_option cards		
$$$$$$$$$$$$$$$$$$$$$$$$$$$$$$$$$$$$$$$$$$$$$$$$$$$$
$
$
$$$$$$$$$$$$$$$$$$$$$$$$$$$$$$$$$$$$$$$$$$$$$$$$$$$$
$		Writing Materials		
$$$$$$$$$$$$$$$$$$$$$$$$$$$$$$$$$$$$$$$$$$$$$$$$$$$$
$
*MAT_ELASTIC                                                                    
$      MID        RO         E        PR        DA        DB         K
         1         0         0         0         0         0         0
$
$$$$$$$$$$$$$$$$$$$$$$$$$$$$$$$$$$$$$$$$$$$$$$$$$$$$
$		Writing Sections		
$$$$$$$$$$$$$$$$$$$$$$$$$$$$$$$$$$$$$$$$$$$$$$$$$$$$
$
*SECTION_SOLID                                                                  
$       id   elformu       aet
        20         1         1
$
$$$$$$$$$$$$$$$$$$$$$$$$$$$$$$$$$$$$$$$$$$$$$$$$$$$$
$		Writing Parts		
$$$$$$$$$$$$$$$$$$$$$$$$$$$$$$$$$$$$$$$$$$$$$$$$$$$$
$
*PART                                                                           
$name
SOIL                                                                  
$       id     secid       mid     eosid      hgid      grav    adpopt      tmid
        17        20         1         0         0         0         0         0
$
$$$$$$$$$$$$$$$$$$$$$$$$$$$$$$$$$$$$$$$$$$$$$$$$$$$$
$		Writing Nodes		
$$$$$$$$$$$$$$$$$$$$$$$$$$$$$$$$$$$$$$$$$$$$$$$$$$$$
$
*NODE
$   Node               x               y               z      tc      rc
       1       152.64898       772.68773       1498.5023       0       0
       2      -164.01769       772.68773       1498.5023       0       0
       3       152.64898       813.57673       1809.0851       0       0
       4      -164.01769       813.57672       1809.0851       0       0
       5       152.64899       818.95633       1498.5023       0       0
       6      -164.01768       818.95633       1498.5023       0       0
       7       152.64899       858.92847       1801.1014       0       0
       8      -164.01768       858.92841       1801.1014       0       0
       9       152.64899       874.47867       1498.5022       0       0
      10      -164.01768       874.47867       1498.5023       0       0
      11       152.64899       913.35059       1791.5208       0       0
      12      -164.01768       913.35046       1791.5209       0       0
      13       152.64899       941.10551       1498.5022       0       0
      14      -164.01768       941.10551       1498.5022       0       0
      15       152.64898       978.65715       1780.0242       0       0
      16      -164.01768       978.65695       1780.0243       0       0
      17       152.64898       1021.0578       1498.5022       0       0
      18      -164.01768       1021.0578       1498.5022       0       0
      19       152.64898       1057.0251       1766.2283       0       0
      20      -164.01768       1057.0248       1766.2283       0       0
$ ... 1338 like lines cut
$
$$$$$$$$$$$$$$$$$$$$$$$$$$$$$$$$$$$$$$$$$$$$$$$$$$$$
$		Writing Elements		
$$$$$$$$$$$$$$$$$$$$$$$$$$$$$$$$$$$$$$$$$$$$$$$$$$$$
$
*ELEMENT_SOLID
       1      17
       1       2       4       3       5       6       8       7
       2      17
       5       6       8       7       9      10      12      11
       3      17
       9      10      12      11      13      14      16      15
       4      17
      13      14      16      15      17      18      20      19
       5      17
      17      18      20      19      21      22      24      23
       6      17
       3       4      26      25       7       8      28      27
       7      17
       7       8      28      27      11      12      30      29
       8      17
      11      12      30      29      15      16      32      31
       9      17
      15      16      32      31      19      20      34      33
      10      17
      19      20      34      33      23      24      36      35
$ ... 2014 like lines cut
$
$$$$$$$$$$$$$$$$$$$$$$$$$$$$$$$$$$$$$$$$$$$$$$$$$$$$
$		Writing Sets		
$$$$$$$$$$$$$$$$$$$$$$$$$$$$$$$$$$$$$$$$$$$$$$$$$$$$
$
*SET_NODE_LIST                                                                  
$FIXD
        18
       577       578       579       580       581       582       583       584
       585       586       587       588       589       590       591       592
       593       594       595       596       597       598       599       600
       601       602       603       604       605       606       607       608
       609       610       611       612       613       614       615       616
       617       618       619       620       621       622       623       624
       625       626       627       628       629       630       631       632
       633       634       635       636       637       638       639       640
       641       642       643       644       645       646       647       648
       649       650       651       652       653       654       655       656
       657       658       659       660       661       662       663       664
       665       666       667       668       669       670       671       672
       673       674       675       676       677       678       679       680
       681       682       683       684       685       686       687       688
       689       690       691       692       693       694       695       696
       697       698       699       700       701       702       703       704
       705       706       707       708       709       710       711       712
       713       714       715       716       717       718       719       720
       725       726       727       728       731       732       735       736
$ ... 16 like lines cut
$
$$$$$$$$$$$$$$$$$$$$$$$$$$$$$$$$$$$$$$$$$$$$$$$$$$$$
$		Writing Boundary Conditions		
$$$$$$$$$$$$$$$$$$$$$$$$$$$$$$$$$$$$$$$$$$$$$$$$$$$$
$
$BOUNDARY CONDITIONS                                                            
*END
